[General]
network = Lab3 
sim-time-limit = 10s
